1gj7_ligand
Version: PDBbind v2024

 43 46  0  0  1  0            999 V2000
    8.3610   -0.8350   22.4740 Cl  0  0  0  0  0  0
   10.8780    6.1340   22.1250 O   0  0  0  0  0  0
    7.5210   -0.7780   26.7490 N   0  3  0  0  0  0
    8.6130   -1.9210   25.1090 N   0  0  0  0  0  0
    9.7930    4.0110   23.4250 N   0  0  0  0  0  0
   12.8960   10.3610   20.2340 C   0  0  0  0  0  0
   13.4070    9.1420   20.6540 C   0  0  0  0  0  0
   11.7400   10.8600   20.8060 C   0  0  0  0  0  0
   10.3310    8.3320   25.6420 C   0  0  0  0  0  0
   12.7720    8.4350   21.6570 C   0  0  0  0  0  0
   11.0980   10.1470   21.8220 C   0  0  0  0  0  0
   10.0220    6.9650   25.6260 C   0  0  0  0  0  0
   10.8230    8.9520   24.5110 C   0  0  0  0  0  0
    9.1610    1.6830   22.9660 C   0  0  0  0  0  0
    9.5550    3.9940   25.5940 C   0  0  0  0  0  0
    8.8640    1.5830   25.7580 C   0  0  0  0  0  0
    8.7520    0.4970   23.5850 C   0  0  0  0  0  0
    8.2280   -0.7940   25.6410 C   0  0  0  0  0  0
   10.7080    6.8370   23.3020 C   0  0  0  0  0  0
    9.3540    2.8100   23.7440 C   0  0  0  0  0  0
    9.8640    4.7960   24.4820 C   0  0  0  0  0  0
   11.6130    8.9280   22.2610 C   0  0  0  0  0  0
    9.2490    2.7450   25.0950 C   0  0  0  0  0  0
    8.5780    0.4240   24.9970 C   0  0  0  0  0  0
   10.2150    6.1850   24.4680 C   0  0  0  0  0  0
   11.0270    8.2220   23.3300 C   0  0  0  0  0  0
    7.2525   -1.7230   27.2438 H   0  0  0  0  0  0
    7.1978    0.1804   27.1814 H   0  0  0  0  0  0
    8.3525   -2.8744   25.5918 H   0  0  0  0  0  0
    9.1982   -1.9180   24.1776 H   0  0  0  0  0  0
   10.0460    4.2446   22.3803 H   0  0  0  0  0  0
   13.3634   10.8791   19.5176 H   0  0  0  0  0  0
   14.2352    8.7747   20.2308 H   0  0  0  0  0  0
   11.3633   11.7316   20.4924 H   0  0  0  0  0  0
   10.1941    8.8621   26.4788 H   0  0  0  0  0  0
   13.1477    7.5574   21.9549 H   0  0  0  0  0  0
   10.2648   10.5130   22.2364 H   0  0  0  0  0  0
    9.6576    6.5348   26.4520 H   0  0  0  0  0  0
   11.0357    9.9289   24.5335 H   0  0  0  0  0  0
    9.3112    1.7153   21.9779 H   0  0  0  0  0  0
    9.5566    4.2729   26.5543 H   0  0  0  0  0  0
    8.7907    1.5673   26.7552 H   0  0  0  0  0  0
   10.6362    5.0616   22.0850 H   0  0  0  0  0  0
  1 17  1  0  0  0
  2 19  1  0  0  0
  2 43  1  0  0  0
  3 18  2  0  0  0
  3 27  1  0  0  0
  3 28  1  0  0  0
  4 18  1  0  0  0
  4 29  1  0  0  0
  4 30  1  0  0  0
  5 20  1  0  0  0
  5 21  1  0  0  0
  5 31  1  0  0  0
  6  7  2  0  0  0
  6  8  1  0  0  0
  6 32  1  0  0  0
  7 10  1  0  0  0
  7 33  1  0  0  0
  8 11  2  0  0  0
  8 34  1  0  0  0
  9 12  2  0  0  0
  9 13  1  0  0  0
  9 35  1  0  0  0
 10 22  2  0  0  0
 10 36  1  0  0  0
 11 22  1  0  0  0
 11 37  1  0  0  0
 12 25  1  0  0  0
 12 38  1  0  0  0
 13 26  2  0  0  0
 13 39  1  0  0  0
 14 17  1  0  0  0
 14 20  2  0  0  0
 14 40  1  0  0  0
 15 21  2  0  0  0
 15 23  1  0  0  0
 15 41  1  0  0  0
 16 23  2  0  0  0
 16 24  1  0  0  0
 16 42  1  0  0  0
 17 24  2  0  0  0
 18 24  1  0  0  0
 19 25  2  0  0  0
 19 26  1  0  0  0
 20 23  1  0  0  0
 21 25  1  0  0  0
 22 26  1  0  0  0
M  END
$$$$