#    Name:    1gj7_ligand
#    Version:    PDBbind v2024

@<TRIPOS>MOLECULE
1gj7_ligand
   43    46     1     0     0
SMALL
USER_CHARGES

@<TRIPOS>ATOM
      1 CL2         8.3610   -0.8350   22.4740 Cl        1 132         0.0000
      2 O6'        10.8780    6.1340   22.1250 O.3       1 132         0.0000
      3 N1          7.5210   -0.7780   26.7490 N.pl3     1 132         0.0000
      4 N2          8.6130   -1.9210   25.1090 N.pl3     1 132         0.0000
      5 N3          9.7930    4.0110   23.4250 N.pl3     1 132         0.0000
      6 C4B        12.8960   10.3610   20.2340 C.ar      1 132         0.0000
      7 C3B        13.4070    9.1420   20.6540 C.ar      1 132         0.0000
      8 C5B        11.7400   10.8600   20.8060 C.ar      1 132         0.0000
      9 C3'        10.3310    8.3320   25.6420 C.ar      1 132         0.0000
     10 C2B        12.7720    8.4350   21.6570 C.ar      1 132         0.0000
     11 C6B        11.0980   10.1470   21.8220 C.ar      1 132         0.0000
     12 C2'        10.0220    6.9650   25.6260 C.ar      1 132         0.0000
     13 C4'        10.8230    8.9520   24.5110 C.ar      1 132         0.0000
     14 C3          9.1610    1.6830   22.9660 C.ar      1 132         0.0000
     15 C9          9.5550    3.9940   25.5940 C.2       1 132         0.0000
     16 C6          8.8640    1.5830   25.7580 C.ar      1 132         0.0000
     17 C2          8.7520    0.4970   23.5850 C.ar      1 132         0.0000
     18 C7          8.2280   -0.7940   25.6410 C.cat     1 132         1.0000
     19 C6'        10.7080    6.8370   23.3020 C.ar      1 132         0.0000
     20 C4          9.3540    2.8100   23.7440 C.ar      1 132         0.0000
     21 C8          9.8640    4.7960   24.4820 C.2       1 132         0.0000
     22 C1B        11.6130    8.9280   22.2610 C.ar      1 132         0.0000
     23 C5          9.2490    2.7450   25.0950 C.ar      1 132         0.0000
     24 C1          8.5780    0.4240   24.9970 C.ar      1 132         0.0000
     25 C1'        10.2150    6.1850   24.4680 C.ar      1 132         0.0000
     26 C5'        11.0270    8.2220   23.3300 C.ar      1 132         0.0000
     27 H          10.6362    5.0616   22.0850 H         1 132         0.0000
     28 H           7.2525   -1.7230   27.2438 H         1 132         0.0000
     29 H           7.1978    0.1804   27.1814 H         1 132         0.0000
     30 H           8.3525   -2.8744   25.5918 H         1 132         0.0000
     31 H           9.1982   -1.9180   24.1776 H         1 132         0.0000
     32 H          10.0460    4.2446   22.3803 H         1 132         0.0000
     33 H          13.4055   10.9257   19.4532 H         1 132         0.0000
     34 H          14.3098    8.7416   20.1927 H         1 132         0.0000
     35 H          11.3294   11.8101   20.4641 H         1 132         0.0000
     36 H          10.1817    8.9098   26.5541 H         1 132         0.0000
     37 H          13.1815    7.4785   21.9817 H         1 132         0.0000
     38 H          10.1898   10.5460   22.2737 H         1 132         0.0000
     39 H           9.6248    6.4961   26.5263 H         1 132         0.0000
     40 H          11.0548   10.0168   24.5355 H         1 132         0.0000
     41 H           9.3248    1.7182   21.8889 H         1 132         0.0000
     42 H           9.5568    4.2980   26.6407 H         1 132         0.0000
     43 H           8.7841    1.5658   26.8449 H         1 132         0.0000
@<TRIPOS>BOND
     1    1   17 1
     2    2   19 1
     3    2   27 1
     4    3   18 ar
     5    3   28 1
     6    3   29 1
     7    4   18 ar
     8    4   30 1
     9    4   31 1
    10    5   20 1
    11    5   21 1
    12    5   32 1
    13    6    7 ar
    14    6    8 ar
    15    6   33 1
    16    7   10 ar
    17    7   34 1
    18    8   11 ar
    19    8   35 1
    20    9   12 ar
    21    9   13 ar
    22    9   36 1
    23   10   22 ar
    24   10   37 1
    25   11   22 ar
    26   11   38 1
    27   12   25 ar
    28   12   39 1
    29   13   26 ar
    30   13   40 1
    31   14   17 ar
    32   14   20 ar
    33   14   41 1
    34   15   21 2
    35   15   23 1
    36   15   42 1
    37   16   23 ar
    38   16   24 ar
    39   16   43 1
    40   17   24 ar
    41   18   24 1
    42   19   25 ar
    43   19   26 ar
    44   20   23 ar
    45   21   25 1
    46   22   26 1

