#    Name:    1azm_ligand
#    Version:    PDBbind v2024

@<TRIPOS>MOLECULE
1azm_ligand
   19    19     1     0     0
SMALL
USER_CHARGES

@<TRIPOS>ATOM
      1 C1         34.7630   17.1930  -17.9380 C.2       1 AZM         0.0000
      2 C2         34.4370   16.4480  -20.1450 C.2       1 AZM         0.0000
      3 C3         32.9390   14.7710  -20.9940 C.2       1 AZM         0.0000
      4 C4         32.4510   14.0020  -22.1390 C.3       1 AZM         0.0000
      5 N1         36.4910   17.6300  -15.9610 N.am      1 AZM         0.0000
      6 N2         35.0660   17.6270  -20.0430 N.2       1 AZM         0.0000
      7 N3         35.1880   18.0710  -18.7670 N.2       1 AZM         0.0000
      8 N4         33.7590   15.8350  -21.2140 N.am      1 AZM         0.0000
      9 O1         34.6720   16.0100  -15.7230 O.2       1 AZM         0.0000
     10 O2         34.1710   18.4170  -15.6930 O.2       1 AZM         0.0000
     11 O3         32.5820   14.4290  -19.8630 O.2       1 AZM         0.0000
     12 S1         34.9540   17.3730  -16.1930 S.o2      1 AZM         0.0000
     13 S2         34.0480   15.8110  -18.6090 S.3       1 AZM         0.0000
     14 H          32.8563   14.4301  -23.0677 H         1 AZM         0.0000
     15 H          31.3521   14.0419  -22.1659 H         1 AZM         0.0000
     16 H          32.7778   12.9559  -22.0442 H         1 AZM         0.0000
     17 H          36.6839   17.7526  -14.8850 H         1 AZM         0.0000
     18 H          36.7947   18.5429  -16.4943 H         1 AZM         0.0000
     19 H          33.8892   16.2149  -22.2381 H         1 AZM         0.0000
@<TRIPOS>BOND
     1    1    7 2
     2    1   12 1
     3    1   13 1
     4    2    6 2
     5    2    8 1
     6    2   13 1
     7    3    4 1
     8    3    8 am
     9    3   11 2
    10    4   14 1
    11    4   15 1
    12    4   16 1
    13    5   12 am
    14    5   17 1
    15    5   18 1
    16    6    7 1
    17    8   19 1
    18    9   12 2
    19   10   12 2

