1azm_ligand
Version: PDBbind v2024

 19 19  0  0  1  0            999 V2000
   34.0480   15.8110  -18.6090 S   0  0  0  0  0  0
   34.9540   17.3730  -16.1930 S   0  0  0  0  0  0
   34.6720   16.0100  -15.7230 O   0  0  0  0  0  0
   34.1710   18.4170  -15.6930 O   0  0  0  0  0  0
   32.5820   14.4290  -19.8630 O   0  0  0  0  0  0
   36.4910   17.6300  -15.9610 N   0  0  0  0  0  0
   35.1880   18.0710  -18.7670 N   0  0  0  0  0  0
   35.0660   17.6270  -20.0430 N   0  0  0  0  0  0
   33.7590   15.8350  -21.2140 N   0  0  0  0  0  0
   32.4510   14.0020  -22.1390 C   0  0  0  0  0  0
   34.7630   17.1930  -17.9380 C   0  0  0  0  0  0
   34.4370   16.4480  -20.1450 C   0  0  0  0  0  0
   32.9390   14.7710  -20.9940 C   0  0  0  0  0  0
   36.6839   17.7526  -14.8850 H   0  0  0  0  0  0
   36.7947   18.5429  -16.4943 H   0  0  0  0  0  0
   33.8892   16.2149  -22.2381 H   0  0  0  0  0  0
   31.8062   13.1847  -21.7837 H   0  0  0  0  0  0
   33.3056   13.5819  -22.6896 H   0  0  0  0  0  0
   31.8743   14.6612  -22.8045 H   0  0  0  0  0  0
  1 11  1  0  0  0
  1 12  1  0  0  0
  2  3  2  0  0  0
  2  4  2  0  0  0
  2  6  1  0  0  0
  2 11  1  0  0  0
  5 13  2  0  0  0
  6 14  1  0  0  0
  6 15  1  0  0  0
  7  8  1  0  0  0
  7 11  2  0  0  0
  8 12  2  0  0  0
  9 12  1  0  0  0
  9 13  1  0  0  0
  9 16  1  0  0  0
 10 13  1  0  0  0
 10 17  1  0  0  0
 10 18  1  0  0  0
 10 19  1  0  0  0
M  END
$$$$