#    Name:    1a99_ligand
#    Version:    PDBbind v2024

@<TRIPOS>MOLECULE
1a99_ligand
   20    19     1     0     0
SMALL
USER_CHARGES

@<TRIPOS>ATOM
      1 N2        185.9370    8.2100   65.8030 N.4       1 PUT         1.0000
      2 N1        182.2700    7.0450   60.9210 N.4       1 PUT         1.0000
      3 C4        185.0470    7.2500   65.0860 C.3       1 PUT         0.0000
      4 C1        182.5140    7.8100   62.1680 C.3       1 PUT         0.0000
      5 C3        184.0970    7.9880   64.1260 C.3       1 PUT         0.0000
      6 C2        183.4900    7.0810   63.0700 C.3       1 PUT         0.0000
      7 H         186.6035    7.6561   66.4805 H         1 PUT         0.0000
      8 H         185.3239    8.9132   66.3857 H         1 PUT         0.0000
      9 H         186.5395    8.7681   65.0712 H         1 PUT         0.0000
     10 H         181.5599    7.5953   60.2863 H         1 PUT         0.0000
     11 H         181.8503    6.0596   61.1716 H         1 PUT         0.0000
     12 H         183.2188    6.9128   60.3804 H         1 PUT         0.0000
     13 H         185.6601    6.5468   64.5033 H         1 PUT         0.0000
     14 H         184.4445    6.6919   65.8178 H         1 PUT         0.0000
     15 H         182.9337    8.7954   61.9174 H         1 PUT         0.0000
     16 H         181.5652    7.9423   62.7086 H         1 PUT         0.0000
     17 H         183.2691    8.4316   64.6985 H         1 PUT         0.0000
     18 H         184.6488    8.7832   63.6034 H         1 PUT         0.0000
     19 H         182.9694    6.2614   63.5870 H         1 PUT         0.0000
     20 H         184.3114    6.6697   62.4650 H         1 PUT         0.0000
@<TRIPOS>BOND
     1    1    3 1
     2    1    7 1
     3    1    8 1
     4    1    9 1
     5    2    4 1
     6    2   10 1
     7    2   11 1
     8    2   12 1
     9    3    5 1
    10    3   13 1
    11    3   14 1
    12    4    6 1
    13    4   15 1
    14    4   16 1
    15    5    6 1
    16    5   17 1
    17    5   18 1
    18    6   19 1
    19    6   20 1

