1a99_ligand
Version: PDBbind v2024

 20 19  0  0  1  0            999 V2000
  185.9370    8.2100   65.8030 N   0  3  0  0  0  0
  182.2700    7.0450   60.9210 N   0  3  0  0  0  0
  185.0470    7.2500   65.0860 C   0  0  0  0  0  0
  182.5140    7.8100   62.1680 C   0  0  0  0  0  0
  184.0970    7.9880   64.1260 C   0  0  0  0  0  0
  183.4900    7.0810   63.0700 C   0  0  0  0  0  0
  186.6035    7.6561   66.4805 H   0  0  0  0  0  0
  185.3239    8.9132   66.3857 H   0  0  0  0  0  0
  181.5599    7.5953   60.2863 H   0  0  0  0  0  0
  181.8503    6.0596   61.1716 H   0  0  0  0  0  0
  185.6601    6.5468   64.5033 H   0  0  0  0  0  0
  184.4445    6.6919   65.8178 H   0  0  0  0  0  0
  182.9337    8.7954   61.9174 H   0  0  0  0  0  0
  181.5652    7.9423   62.7086 H   0  0  0  0  0  0
  183.2691    8.4316   64.6985 H   0  0  0  0  0  0
  184.6488    8.7832   63.6034 H   0  0  0  0  0  0
  182.9694    6.2614   63.5870 H   0  0  0  0  0  0
  184.3114    6.6697   62.4650 H   0  0  0  0  0  0
  186.5395    8.7681   65.0712 H   0  0  0  0  0  0
  183.2188    6.9128   60.3804 H   0  0  0  0  0  0
  1  3  1  0  0  0
  1  7  1  0  0  0
  1  8  1  0  0  0
  1 19  1  0  0  0
  2  4  1  0  0  0
  2  9  1  0  0  0
  2 10  1  0  0  0
  2 20  1  0  0  0
  3  5  1  0  0  0
  3 11  1  0  0  0
  3 12  1  0  0  0
  4  6  1  0  0  0
  4 13  1  0  0  0
  4 14  1  0  0  0
  5  6  1  0  0  0
  5 15  1  0  0  0
  5 16  1  0  0  0
  6 17  1  0  0  0
  6 18  1  0  0  0
M  END
$$$$